[General]
sim-time-limit = 100s

network = oppresultmanagers.examples.common.Network

outputscalarmanager-class = "cPostgreSQLOutputScalarManager"
outputvectormanager-class = "cPostgreSQLOutputVectorManager"
postgresqloutputmanager-connection = "dbname=testdb user=testuser password=testuser"
postgresqloutputmanager-commit-freq = 10000
