[General]
sim-time-limit = 100s
simtime-resolution = ns

network = oppresultmanagers.examples.pcapng.Network

record-eventlog = true
**.scalar-recording = false
**.vector-recording = false

eventlogmanager-class = "PCAPNGEventlogManager"

pcapng-interfaces = "Network.node1.mac.phys$i=eth0, Network.node1.mac.phys$o=eth0, Network.node2.mac.phys$i"
pcapng-capturelength = 3200
pcapng-ethernet-netanalyzer = false


**.node1.cli.destAddress = "node2"
**.node2.cli.destAddress = "node1"
**.cli.sendInterval = exponential(1s)