[General]
sim-time-limit = 100s
simtime-precision = ns

network = oppresultmanagers.examples.pcapng.Network

record-eventlog = true
**.scalar-recording = false
**.vector-recording = false

eventlogmanager-class = "PCAPNGEventlogManager"

pcapng-interfaces = "Network.node1.mac.phys$i, Network.node1.mac.phys$o, Network.node2.mac.phys$i"
pcapng-capturelength = 3200


**.node1.cli.destAddress = "node2"
**.node2.cli.destAddress = "node1"
**.cli.sendInterval = exponential(1s)