[General]
sim-time-limit = 100s

network = oppresultmanagers.examples.common.Network

record-eventlog = true
**.scalar-recording = false
**.vector-recording = false

eventlogmanager-class = "PCAPNGEventlogManager"
