[General]
sim-time-limit = 100s

network = oppresultmanagers.examples.common.Network

outputscalarmanager-class = "cSQLiteOutputScalarManager"
outputvectormanager-class = "cSQLiteOutputVectorManager"
sqliteoutputmanager-file = ${resultdir}/${configname}-${runnumber}.sqlite3
sqliteoutputmanager-commit-freq = 10000