[General]
sim-time-limit = 100s

network = oppresultmanagers.examples.common.Network

record-eventlog = false

outputvectormanager-class = "cMultipleOutputVectorManager"
outputvectormanager-classes = "cIndexedFileOutputVectorManager, cCheckOutputVectorManager"
outputscalarmanager-class = "cMultipleOutputScalarManager"
outputscalarmanager-classes = "cFileOutputScalarManager"

