[General]
sim-time-limit = 100s

network = oppresultmanagers.examples.common.Network

record-eventlog = false
**.scalar-recording = false

outputvectormanager-class = "cCheckOutputVectorManager"

checkoutputvectormanager-configfile = constraints.xml
checkoutputvectormanager-report = true
checkoutputvectormanager-reportfile = ${resultdir}/${configname}-${runnumber}-constraintReport.csv

